LTspice 26.0.0 for Windows
Circuit: E:\My Downloads\Chrome Downloads\UPatras\zvs\schmatic\new_combined.net
Start Time: Sun Dec 21 02:12:55 2025
solver = Normal
Maximum thread count: 4
tnom = 27
temp = 27
method = trap
Compress1stOrder = true
Compress2ndOrder = true
Warning: Capacitor C2 has large value 4.700e+03 F. By default LTspice adds a parallel resistor = 1/(C * 1e-12) = 2.128e+08 Ohm.
         To avoid this, define parallel resistance Rpar for this capacitor, or add '.options gfarad=0' to the circuit.
E:\My Downloads\Chrome Downloads\UPatras\zvs\schmatic\new_combined.net(20): Limiting fall time to 1.

V1 N001 0 PULSE(0 32 0 0.001 0 10)
^^^^^^^^^^^^^^^^^^^^^^^^^^^^^^^^^^
E:\My Downloads\Chrome Downloads\UPatras\zvs\schmatic\new_combined.net(55): Limiting fall time to 1.

V4 N022 0 PULSE(0 32 0 0.001 0 10)
^^^^^^^^^^^^^^^^^^^^^^^^^^^^^^^^^^
WARNING: Node n008 is floating.

Direct Newton iteration failed to find operating point.
Starting Gmin stepping
Gmin stepping succeeded in finding the operating point.

Total elapsed time: 0.408 seconds.

Files loaded:
E:\My Downloads\Chrome Downloads\UPatras\zvs\schmatic\new_combined.net
C:\Users\Gkagia\AppData\Local\LTspice\lib\cmp\standard.dio
C:\Users\Gkagia\AppData\Local\LTspice\lib\cmp\standard.mos
C:\Users\Gkagia\AppData\Local\LTspice\lib\sub\LT317A.sub

