LTspice 26.0.0 for Windows
Circuit: E:\My Downloads\Chrome Downloads\UPatras\zvs\schmatic\new_combined_stillwrong.net
Start Time: Sat Dec 20 21:43:37 2025
solver = Normal
Maximum thread count: 4
tnom = 27
temp = 27
method = trap
Compress1stOrder = true
Compress2ndOrder = true
E:\My Downloads\Chrome Downloads\UPatras\zvs\schmatic\new_combined_stillwrong.net(20): Limiting fall time to 1.

V1 N003 0 PULSE(0 32 0 0.001 0 10)
^^^^^^^^^^^^^^^^^^^^^^^^^^^^^^^^^^
E:\My Downloads\Chrome Downloads\UPatras\zvs\schmatic\new_combined_stillwrong.net(55): Limiting fall time to 1.

V4 N012 0 PULSE(0 32 0 0.001 0 10)
^^^^^^^^^^^^^^^^^^^^^^^^^^^^^^^^^^
WARNING: Node n020 is floating.

Direct Newton iteration failed to find operating point.
Starting Gmin stepping
Gmin stepping succeeded in finding the operating point.

Total elapsed time: 0.992 seconds.

Files loaded:
E:\My Downloads\Chrome Downloads\UPatras\zvs\schmatic\new_combined_stillwrong.net
C:\Users\Gkagia\AppData\Local\LTspice\lib\cmp\standard.dio
C:\Users\Gkagia\AppData\Local\LTspice\lib\cmp\standard.mos
C:\Users\Gkagia\AppData\Local\LTspice\lib\sub\LT317A.sub

